<configuration>
    <input>
        <net-file value="red_simple.net.xml"/>
        <route-files value="rutas.rou.xml"/>
    </input>

    <time>
        <begin value="0"/>
        <end value="100"/>
    </time>
</configuration>
