<additional xmlns:xsi="http://www.w3.org/2001/XMLSchema-instance"
            xsi:noNamespaceSchemaLocation="http://sumo.dlr.de/xsd/additional_file.xsd">

    <edgeData id="1"
              period="600"
              type="emissions"
              file="edgeData-output-v2.xml"
              excludeEmpty="true"/>

</additional>
