<?xml version="1.0" encoding="UTF-8"?>

<!-- generated on 2026-01-13T17:17:13.700284-05:00 by Eclipse SUMO netconvert v1_25_0+0955-b1df2471f66
<netconvertConfiguration xmlns:xsi="http://www.w3.org/2001/XMLSchema-instance" xsi:noNamespaceSchemaLocation="http://sumo.dlr.de/xsd/netconvertConfiguration.xsd">

    <input>
        <osm-files value="map.osm"/>
    </input>

    <output>
        <output-file value="red_osm.net.xml"/>
    </output>

    <projection>
        <proj.utm value="true"/>
    </projection>

    <tls_building>
        <tls.discard-simple value="true"/>
        <tls.guess value="true"/>
    </tls_building>

</netconvertConfiguration>
-->

<net version="1.20" junctionCornerDetail="5" limitTurnSpeed="5.50" xmlns:xsi="http://www.w3.org/2001/XMLSchema-instance" xsi:noNamespaceSchemaLocation="http://sumo.dlr.de/xsd/net_file.xsd">

    <location netOffset="-720791.05,321007.66" convBoundary="0.00,0.00,1891.01,986.68" origBoundary="-79.013689,-2.902459,-78.996677,-2.893557" projParameter="+proj=utm +zone=17 +ellps=WGS84 +datum=WGS84 +units=m +no_defs"/>

    <type id="highway.footway" priority="1" numLanes="1" speed="2.78" allow="pedestrian" oneway="1" width="2.00"/>
    <type id="highway.path" priority="1" numLanes="1" speed="5.56" allow="pedestrian bicycle" oneway="0" width="2.00"/>
    <type id="highway.pedestrian" priority="1" numLanes="1" speed="2.78" allow="pedestrian" oneway="1" width="2.00"/>
    <type id="highway.residential" priority="3" numLanes="1" speed="13.89" disallow="tram rail_urban rail rail_electric rail_fast ship container cable_car subway aircraft wheelchair scooter drone" oneway="0"/>
    <type id="highway.service" priority="1" numLanes="1" speed="5.56" allow="pedestrian delivery bicycle" oneway="0"/>
    <type id="railway.tram" priority="17" numLanes="1" speed="13.89" allow="tram" oneway="1"/>

    <edge id=":10710987852_0" function="internal">
        <lane id=":10710987852_0_0" index="0" allow="pedestrian delivery bicycle" speed="3.65" length="4.67" shape="1014.81,326.07 1013.49,325.48 1012.95,324.77 1013.21,323.91 1014.25,322.91"/>
    </edge>
    <edge id=":10710987853_0" function="internal">
        <lane id=":10710987853_0_0" index="0" disallow="tram rail_urban rail rail_electric rail_fast ship container cable_car subway aircraft wheelchair scooter drone" speed="8.33" length="9.40" shape="1031.87,316.66 1033.67,325.88"/>
    </edge>
    <edge id=":10710987853_1" function="internal">
        <lane id=":10710987853_1_0" index="0" allow="pedestrian delivery bicycle" speed="6.06" length="7.81" shape="1031.87,316.66 1032.21,319.41 1032.00,321.45 1031.24,322.79 1029.94,323.42"/>
    </edge>
    <edge id=":10710987853_2" function="internal">
        <lane id=":10710987853_2_0" index="0" allow="pedestrian delivery bicycle" speed="6.13" length="7.79" shape="1029.39,320.27 1030.81,320.42 1032.00,321.40 1032.96,323.22 1033.67,325.88"/>
    </edge>
    <edge id=":10710987853_3" function="internal">
        <lane id=":10710987853_3_0" index="0" allow="pedestrian delivery bicycle" speed="3.65" length="4.67" shape="1029.39,320.27 1030.71,320.85 1031.24,321.57 1030.98,322.43 1029.94,323.42"/>
    </edge>
    <edge id=":10778577906_0" function="internal">
        <lane id=":10778577906_0_0" index="0" disallow="tram rail_urban rail rail_electric rail_fast ship container cable_car subway aircraft wheelchair scooter drone" speed="8.33" length="7.73" shape="1052.07,430.18 1053.27,437.82"/>
    </edge>
    <edge id=":10778577906_1" function="internal">
        <lane id=":10778577906_1_0" index="0" allow="pedestrian delivery bicycle" speed="6.12" length="7.78" shape="1052.07,430.18 1052.31,432.93 1052.03,434.96 1051.25,436.29 1049.97,436.91"/>
    </edge>
    <edge id=":10778577906_2" function="internal">
        <lane id=":10778577906_2_0" index="0" allow="pedestrian delivery bicycle" speed="5.54" length="6.33" shape="1049.42,433.76 1050.84,433.81 1051.95,434.50 1052.76,435.84 1053.27,437.82"/>
    </edge>
    <edge id=":10778577906_3" function="internal">
        <lane id=":10778577906_3_0" index="0" allow="pedestrian delivery bicycle" speed="3.65" length="4.67" shape="1049.42,433.76 1050.74,434.34 1051.27,435.06 1051.01,435.92 1049.97,436.91"/>
    </edge>
    <edge id=":10866331302_0" function="internal">
        <lane id=":10866331302_0_0" index="0" disallow="tram rail_urban rail rail_electric rail_fast ship container cable_car subway aircraft wheelchair scooter drone" speed="8.33" length="9.38" shape="1164.04,405.50 1162.31,396.28"/>
    </edge>
    <edge id=":10866331302_1" function="internal">
        <lane id=":10866331302_1_0" index="0" allow="pedestrian delivery bicycle" speed="6.04" length="7.86" shape="1164.04,405.50 1163.75,402.73 1164.01,400.68 1164.81,399.37 1166.16,398.77"/>
    </edge>
    <edge id=":10866331302_2" function="internal">
        <lane id=":10866331302_2_0" index="0" allow="pedestrian delivery bicycle" speed="6.21" length="7.81" shape="1166.61,401.94 1165.18,401.75 1163.98,400.75 1163.03,398.92 1162.31,396.28"/>
    </edge>
    <edge id=":10866331302_3" function="internal">
        <lane id=":10866331302_3_0" index="0" allow="pedestrian delivery bicycle" speed="3.65" length="4.67" shape="1166.61,401.94 1165.31,401.32 1164.80,400.58 1165.08,399.73 1166.16,398.77"/>
    </edge>
    <edge id=":10866331303_0" function="internal">
        <lane id=":10866331303_0_0" index="0" allow="pedestrian delivery bicycle" speed="3.65" length="4.67" shape="1186.88,395.82 1188.19,396.44 1188.69,397.17 1188.41,398.02 1187.34,398.98"/>
    </edge>
    <edge id=":10940012542_0" function="internal">
        <lane id=":10940012542_0_0" index="0" allow="pedestrian delivery bicycle" speed="5.05" length="5.02" shape="1117.66,758.30 1116.37,758.78 1115.54,759.56 1115.16,760.63 1115.26,761.99"/>
    </edge>
    <edge id=":10940012542_1" function="internal">
        <lane id=":10940012542_1_0" index="0" allow="pedestrian delivery bicycle" speed="3.65" length="4.67" shape="1117.66,758.30 1116.32,757.78 1115.76,757.08 1115.98,756.21 1116.98,755.18"/>
    </edge>
    <edge id=":10940012542_2" function="internal">
        <lane id=":10940012542_2_0" index="0" allow="pedestrian delivery bicycle" speed="5.04" length="5.00" shape="1113.30,752.80 1113.77,754.08 1114.55,754.91 1115.62,755.27 1116.98,755.18"/>
    </edge>
    <edge id=":10940012542_3" function="internal">
        <lane id=":10940012542_3_0" index="0" disallow="tram rail_urban rail rail_electric rail_fast ship container cable_car subway aircraft wheelchair scooter drone" speed="8.33" length="9.40" shape="1113.30,752.80 1115.26,761.99"/>
    </edge>
    <edge id=":10940012543_0" function="internal">
        <lane id=":10940012543_0_0" index="0" allow="pedestrian delivery bicycle" speed="3.65" length="4.67" shape="1131.33,752.40 1132.66,752.96 1133.20,753.67 1132.96,754.53 1131.93,755.54"/>
    </edge>
    <edge id=":10995781337_0" function="internal">
        <lane id=":10995781337_0_0" index="0" allow="pedestrian delivery bicycle" speed="3.65" length="4.67" shape="1251.90,468.26 1251.41,469.62 1250.73,470.19 1249.86,469.99 1248.80,469.02"/>
    </edge>
    <edge id=":11070812717_0" function="internal">
        <lane id=":11070812717_0_0" index="0" allow="pedestrian delivery bicycle" speed="3.65" length="4.67" shape="1244.92,713.29 1243.56,712.80 1242.99,712.12 1243.18,711.25 1244.16,710.19"/>
    </edge>
    <edge id=":11070812718_0" function="internal">
        <lane id=":11070812718_0_0" index="0" disallow="tram rail_urban rail rail_electric rail_fast ship container cable_car subway aircraft wheelchair scooter drone" speed="8.33" length="9.45" shape="1329.74,686.65 1331.81,695.87"/>
    </edge>
    <edge id=":11070812718_1" function="internal">
        <lane id=":11070812718_1_0" index="0" allow="pedestrian delivery bicycle" speed="5.92" length="7.88" shape="1329.74,686.65 1330.17,689.44 1330.01,691.50 1329.25,692.81 1327.89,693.38"/>
    </edge>
    <edge id=":11070812718_2" function="internal">
        <lane id=":11070812718_2_0" index="0" allow="pedestrian delivery bicycle" speed="6.29" length="7.79" shape="1327.45,690.21 1328.86,690.43 1330.06,691.44 1331.04,693.26 1331.81,695.87"/>
    </edge>
    <edge id=":11070812718_3" function="internal">
        <lane id=":11070812718_3_0" index="0" allow="pedestrian delivery bicycle" speed="3.65" length="4.67" shape="1327.45,690.21 1328.75,690.84 1329.25,691.58 1328.97,692.42 1327.89,693.38"/>
    </edge>
    <edge id=":11070812719_0" function="internal">
        <lane id=":11070812719_0_0" index="0" allow="pedestrian delivery bicycle" speed="3.65" length="4.67" shape="1312.51,361.50 1312.04,362.86 1311.36,363.45 1310.49,363.26 1309.41,362.30"/>
    </edge>
    <edge id=":11070812720_0" function="internal">
        <lane id=":11070812720_0_0" index="0" allow="pedestrian delivery bicycle" speed="5.06" length="5.03" shape="1299.08,322.51 1298.55,321.23 1297.74,320.43 1296.66,320.10 1295.30,320.24"/>
    </edge>
    <edge id=":11070812720_1" function="internal">
        <lane id=":11070812720_1_0" index="0" allow="pedestrian delivery bicycle" speed="3.65" length="4.67" shape="1299.08,322.51 1299.55,321.15 1300.22,320.56 1301.10,320.75 1302.18,321.71"/>
    </edge>
    <edge id=":11070812720_2" function="internal">
        <lane id=":11070812720_2_0" index="0" allow="pedestrian delivery bicycle" speed="5.03" length="5.01" shape="1304.41,317.94 1303.14,318.46 1302.34,319.26 1302.02,320.34 1302.18,321.71"/>
    </edge>
    <edge id=":11070812720_3" function="internal">
        <lane id=":11070812720_3_0" index="0" disallow="tram rail_urban rail rail_electric rail_fast ship container cable_car subway aircraft wheelchair scooter drone" speed="11.11" length="9.40" shape="1304.41,317.94 1295.30,320.24"/>
        <lane id=":11070812720_3_1" index="1" disallow="tram rail_urban rail rail_electric rail_fast ship container cable_car subway aircraft wheelchair scooter drone" speed="11.11" length="9.40" shape="1303.63,314.83 1294.51,317.13"/>
    </edge>
    <edge id=":11309760778_0" function="internal">
        <lane id=":11309760778_0_0" index="0" allow="pedestrian delivery bicycle" speed="3.65" length="4.67" shape="1023.42,441.49 1022.10,440.90 1021.57,440.18 1021.83,439.33 1022.88,438.33"/>
    </edge>
    <edge id=":11675663220_0" function="internal">
        <lane id=":11675663220_0_0" index="0" allow="pedestrian delivery bicycle" speed="5.56" length="0.10" shape="1327.69,693.41 1327.70,693.41"/>
    </edge>
    <edge id=":11675663220_1" function="internal">
        <lane id=":11675663220_1_0" index="0" allow="pedestrian delivery bicycle" speed="5.56" length="0.21" shape="1327.03,690.29 1327.08,690.27 1327.13,690.26 1327.17,690.25 1327.23,690.24"/>
    </edge>
    <edge id=":11675663221_0" function="internal">
        <lane id=":11675663221_0_0" index="0" allow="pedestrian delivery bicycle" speed="5.56" length="0.21" shape="1314.39,696.27 1314.19,696.31"/>
    </edge>
    <edge id=":11675663221_1" function="internal">
        <lane id=":11675663221_1_0" index="0" allow="pedestrian delivery bicycle" speed="5.56" length="0.30" shape="1313.42,693.21 1313.72,693.14"/>
    </edge>
    <edge id=":12013799485_0" function="internal">
        <lane id=":12013799485_0_0" index="0" disallow="tram rail_urban rail rail_electric rail_fast ship container cable_car subway aircraft wheelchair scooter drone" speed="8.33" length="4.93" shape="974.75,513.67 979.45,512.33"/>
        <lane id=":12013799485_0_1" index="1" disallow="tram rail_urban rail rail_electric rail_fast ship container cable_car subway aircraft wheelchair scooter drone" speed="8.33" length="4.93" shape="975.59,516.75 980.37,515.39"/>
    </edge>
    <edge id=":12013799521_0" function="internal">
        <lane id=":12013799521_0_0" index="0" disallow="tram rail_urban rail rail_electric rail_fast ship container cable_car subway aircraft wheelchair scooter drone" speed="8.33" length="4.99" shape="1074.10,547.34 1075.06,552.23"/>
        <lane id=":12013799521_0_1" index="1" disallow="tram rail_urban rail rail_electric rail_fast ship container cable_car subway aircraft wheelchair scooter drone" speed="8.33" length="4.99" shape="1070.96,547.95 1071.92,552.85"/>
    </edge>
    <edge id=":12013799523_0" function="internal">
        <lane id=":12013799523_0_0" index="0" disallow="tram rail_urban rail rail_electric rail_fast ship container cable_car subway aircraft wheelchair scooter drone" speed="8.33" length="5.01" shape="969.10,532.81 968.14,527.90"/>
        <lane id=":12013799523_0_1" index="1" disallow="tram rail_urban rail rail_electric rail_fast ship container cable_car subway aircraft wheelchair scooter drone" speed="8.33" length="5.01" shape="972.24,532.21 971.29,527.29"/>
    </edge>
    <edge id=":12013799524_0" function="internal">
        <lane id=":12013799524_0_0" index="0" disallow="tram rail_urban rail rail_electric rail_fast ship container cable_car subway aircraft wheelchair scooter drone" speed="8.33" length="5.00" shape="976.89,573.19 975.94,568.28"/>
        <lane id=":12013799524_0_1" index="1" disallow="tram rail_urban rail rail_electric rail_fast ship container cable_car subway aircraft wheelchair scooter drone" speed="8.33" length="5.00" shape="980.03,572.58 979.09,567.67"/>
    </edge>
    <edge id=":12013799525_0" function="internal">
        <lane id=":12013799525_0_0" index="0" disallow="tram rail_urban rail rail_electric rail_fast ship container cable_car subway aircraft wheelchair scooter drone" speed="8.33" length="3.71" shape="1051.45,491.82 1055.04,490.86"/>
        <lane id=":12013799525_0_1" index="1" disallow="tram rail_urban rail rail_electric rail_fast ship container cable_car subway aircraft wheelchair scooter drone" speed="8.33" length="3.71" shape="1052.29,494.91 1055.87,493.95"/>
    </edge>
    <edge id=":12013799526_0" function="internal">
        <lane id=":12013799526_0_0" index="0" disallow="tram rail_urban rail rail_electric rail_fast ship container cable_car subway aircraft wheelchair scooter drone" speed="8.33" length="4.69" shape="1064.53,497.66 1065.42,502.26"/>
        <lane id=":12013799526_0_1" index="1" disallow="tram rail_urban rail rail_electric rail_fast ship container cable_car subway aircraft wheelchair scooter drone" speed="8.33" length="4.69" shape="1061.39,498.26 1062.28,502.87"/>
    </edge>
    <edge id=":12013799527_0" function="internal">
        <lane id=":12013799527_0_0" index="0" disallow="tram rail_urban rail rail_electric rail_fast ship container cable_car subway aircraft wheelchair scooter drone" speed="8.33" length="4.05" shape="1077.14,602.76 1073.21,603.76"/>
        <lane id=":12013799527_0_1" index="1" disallow="tram rail_urban rail rail_electric rail_fast ship container cable_car subway aircraft wheelchair scooter drone" speed="8.33" length="4.05" shape="1076.35,599.66 1072.42,600.66"/>
    </edge>
    <edge id=":12013799528_0" function="internal">
        <lane id=":12013799528_0_0" index="0" disallow="tram rail_urban rail rail_electric rail_fast ship container cable_car subway aircraft wheelchair scooter drone" speed="8.33" length="3.43" shape="1082.59,590.54 1083.25,593.91"/>
        <lane id=":12013799528_0_1" index="1" disallow="tram rail_urban rail rail_electric rail_fast ship container cable_car subway aircraft wheelchair scooter drone" speed="8.33" length="3.43" shape="1079.45,591.16 1080.11,594.52"/>
    </edge>
    <edge id=":12013799529_0" function="internal">
        <lane id=":12013799529_0_0" index="0" disallow="tram rail_urban rail rail_electric rail_fast ship container cable_car subway aircraft wheelchair scooter drone" speed="8.33" length="2.74" shape="996.52,623.36 993.87,624.04"/>
        <lane id=":12013799529_0_1" index="1" disallow="tram rail_urban rail rail_electric rail_fast ship container cable_car subway aircraft wheelchair scooter drone" speed="8.33" length="2.74" shape="995.73,620.26 993.07,620.94"/>
    </edge>
    <edge id=":12013799530_0" function="internal">
        <lane id=":12013799530_0_0" index="0" disallow="tram rail_urban rail rail_electric rail_fast ship container cable_car subway aircraft wheelchair scooter drone" speed="8.33" length="3.54" shape="985.56,618.10 984.89,614.62"/>
        <lane id=":12013799530_0_1" index="1" disallow="tram rail_urban rail rail_electric rail_fast ship container cable_car subway aircraft wheelchair scooter drone" speed="8.33" length="3.54" shape="988.70,617.49 988.03,614.01"/>
    </edge>
    <edge id=":13155810165_0" function="internal">
        <lane id=":13155810165_0_0" index="0" allow="pedestrian bicycle" speed="4.42" length="4.04" width="2.00" shape="1095.83,570.76 1095.46,569.71 1094.85,569.04 1093.99,568.74 1092.89,568.81"/>
    </edge>
    <edge id=":13155810165_1" function="internal">
        <lane id=":13155810165_1_0" index="0" allow="pedestrian bicycle" speed="5.56" length="6.82" width="2.00" shape="1095.83,570.76 1095.66,568.84 1095.95,567.18 1096.70,565.80 1097.91,564.69"/>
    </edge>
    <edge id=":13155810165_2" function="internal">
        <lane id=":13155810165_2_0" index="0" allow="pedestrian bicycle" speed="2.89" length="2.92" width="2.00" shape="1095.83,570.76 1096.18,569.93 1096.62,569.59 1097.16,569.74 1097.79,570.38"/>
    </edge>
    <edge id=":13155810165_3" function="internal">
        <lane id=":13155810165_3_0" index="0" allow="pedestrian bicycle" speed="5.49" length="4.49" width="2.00" shape="1099.03,566.34 1098.28,567.05 1097.83,567.96 1097.66,569.07 1097.79,570.38"/>
    </edge>
    <edge id=":13155810165_4" function="internal">
        <lane id=":13155810165_4_0" index="0" allow="pedestrian bicycle" speed="5.56" length="6.70" width="2.00" shape="1099.03,566.34 1097.37,567.42 1096.15,568.02 1094.83,568.40 1092.89,568.81"/>
    </edge>
    <edge id=":13155810165_5" function="internal">
        <lane id=":13155810165_5_0" index="0" allow="pedestrian bicycle" speed="2.89" length="2.92" width="2.00" shape="1099.03,566.34 1098.13,566.35 1097.64,566.08 1097.57,565.52 1097.91,564.69"/>
    </edge>
    <edge id=":13155810165_6" function="internal">
        <lane id=":13155810165_6_0" index="0" allow="pedestrian bicycle" speed="5.56" length="5.92" width="2.00" shape="1092.47,566.85 1094.19,566.49 1095.36,566.16 1096.44,565.64 1097.91,564.69"/>
    </edge>
    <edge id=":13155810165_7" function="internal">
        <lane id=":13155810165_7_0" index="0" allow="pedestrian bicycle" speed="5.56" length="7.31" width="2.00" shape="1092.47,566.85 1094.48,566.72 1096.03,567.26 1097.14,568.49 1097.79,570.38"/>
    </edge>
    <edge id=":13155810165_8" function="internal">
        <lane id=":13155810165_8_0" index="0" allow="pedestrian bicycle" speed="2.89" length="2.92" width="2.00" shape="1092.47,566.85 1093.31,567.19 1093.66,567.63 1093.52,568.17 1092.89,568.81"/>
    </edge>
    <edge id=":13155810167_0" function="internal">
        <lane id=":13155810167_0_0" index="0" allow="pedestrian bicycle" speed="4.73" length="4.63" width="2.00" shape="1082.04,571.11 1080.70,571.55 1079.81,572.21 1079.37,573.10 1079.38,574.21"/>
    </edge>
    <edge id=":13155810167_1" function="internal">
        <lane id=":13155810167_1_0" index="0" allow="pedestrian bicycle" speed="2.89" length="2.92" width="2.00" shape="1082.04,571.11 1081.20,570.79 1080.84,570.36 1080.97,569.82 1081.59,569.16"/>
    </edge>
    <edge id=":13155810167_2" function="internal">
        <lane id=":13155810167_2_0" index="0" allow="pedestrian bicycle" speed="4.83" length="4.55" width="2.00" shape="1078.03,567.34 1078.44,568.38 1079.16,569.03 1080.21,569.29 1081.59,569.16"/>
    </edge>
    <edge id=":13155810167_3" function="internal">
        <lane id=":13155810167_3_0" index="0" disallow="tram rail_urban rail rail_electric rail_fast ship container cable_car subway aircraft wheelchair scooter drone" speed="8.33" length="7.00" shape="1078.03,567.34 1079.38,574.21"/>
        <lane id=":13155810167_3_1" index="1" disallow="tram rail_urban rail rail_electric rail_fast ship container cable_car subway aircraft wheelchair scooter drone" speed="8.33" length="7.00" shape="1074.89,567.96 1076.24,574.83"/>
    </edge>
    <edge id=":13155810168_0" function="internal">
        <lane id=":13155810168_0_0" index="0" disallow="tram rail_urban rail rail_electric rail_fast ship container cable_car subway aircraft wheelchair scooter drone" speed="8.33" length="7.00" shape="1105.07,594.29 1098.29,596.01"/>
    </edge>
    <edge id=":13155810168_1" function="internal">
        <lane id=":13155810168_1_0" index="0" allow="pedestrian bicycle" speed="5.44" length="6.26" width="2.00" shape="1105.07,594.29 1103.07,594.59 1101.55,594.36 1100.52,593.59 1099.97,592.29"/>
    </edge>
    <edge id=":13155810168_2" function="internal">
        <lane id=":13155810168_2_0" index="0" allow="pedestrian bicycle" speed="5.47" length="6.18" width="2.00" shape="1101.93,591.86 1101.92,593.27 1101.31,594.43 1100.10,595.35 1098.29,596.01"/>
    </edge>
    <edge id=":13155810168_3" function="internal">
        <lane id=":13155810168_3_0" index="0" allow="pedestrian bicycle" speed="2.89" length="2.92" width="2.00" shape="1101.93,591.86 1101.60,592.70 1101.17,593.05 1100.62,592.91 1099.97,592.29"/>
    </edge>
    <edge id=":13155810169_0" function="internal">
        <lane id=":13155810169_0_0" index="0" allow="pedestrian bicycle" speed="2.89" length="2.92" width="2.00" shape="1103.79,560.69 1104.69,560.68 1105.18,560.96 1105.25,561.51 1104.91,562.35"/>
    </edge>
    <edge id=":13155810170_0" function="internal">
        <lane id=":13155810170_0_0" index="0" allow="pedestrian bicycle" speed="4.81" length="4.54" width="2.00" shape="982.28,601.09 981.87,600.04 981.15,599.39 980.11,599.13 978.74,599.26"/>
    </edge>
    <edge id=":13155810170_1" function="internal">
        <lane id=":13155810170_1_0" index="0" disallow="tram rail_urban rail rail_electric rail_fast ship container cable_car subway aircraft wheelchair scooter drone" speed="8.33" length="7.00" shape="982.28,601.09 980.95,594.21"/>
        <lane id=":13155810170_1_1" index="1" disallow="tram rail_urban rail rail_electric rail_fast ship container cable_car subway aircraft wheelchair scooter drone" speed="8.33" length="7.00" shape="985.42,600.48 984.09,593.61"/>
    </edge>
    <edge id=":13155810170_3" function="internal">
        <lane id=":13155810170_3_0" index="0" allow="pedestrian bicycle" speed="4.72" length="4.58" width="2.00" shape="978.32,597.30 979.65,596.86 980.53,596.20 980.96,595.32 980.95,594.21"/>
    </edge>
    <edge id=":13155810170_4" function="internal">
        <lane id=":13155810170_4_0" index="0" allow="pedestrian bicycle" speed="2.89" length="2.92" width="2.00" shape="978.32,597.30 979.16,597.63 979.51,598.07 979.37,598.61 978.74,599.26"/>
    </edge>
    <edge id=":13155810171_0" function="internal">
        <lane id=":13155810171_0_0" index="0" allow="pedestrian bicycle" speed="2.89" length="2.92" width="2.00" shape="962.66,602.73 961.82,602.40 961.47,601.96 961.61,601.42 962.24,600.77"/>
    </edge>
    <edge id=":13164132206_0" function="internal">
        <lane id=":13164132206_0_0" index="0" allow="pedestrian bicycle" speed="2.89" length="2.92" width="2.00" shape="1231.51,672.34 1231.14,673.17 1230.69,673.50 1230.15,673.33 1229.53,672.68"/>
    </edge>
    <edge id=":13164132207_0" function="internal">
        <lane id=":13164132207_0_0" index="0" allow="pedestrian bicycle" speed="2.89" length="2.92" width="2.00" shape="1224.99,645.56 1225.36,644.74 1225.81,644.41 1226.35,644.58 1226.96,645.23"/>
    </edge>
    <edge id=":13368460105_0" function="internal">
        <lane id=":13368460105_0_0" index="0" allow="pedestrian delivery bicycle" speed="6.17" length="7.81" shape="1121.49,483.15 1121.64,481.71 1122.61,480.50 1124.42,479.52 1127.07,478.77"/>
    </edge>
    <edge id=":13368460105_1" function="internal">
        <lane id=":13368460105_1_0" index="0" allow="pedestrian delivery bicycle" speed="3.65" length="4.67" shape="1121.49,483.15 1122.07,481.83 1122.79,481.30 1123.65,481.55 1124.64,482.60"/>
    </edge>
    <edge id=":13368460105_2" function="internal">
        <lane id=":13368460105_2_0" index="0" disallow="tram rail_urban rail rail_electric rail_fast ship container cable_car subway aircraft wheelchair scooter drone" speed="11.11" length="9.40" shape="1117.21,477.55 1126.41,475.64"/>
        <lane id=":13368460105_2_1" index="1" disallow="tram rail_urban rail rail_electric rail_fast ship container cable_car subway aircraft wheelchair scooter drone" speed="11.11" length="9.40" shape="1117.86,480.68 1127.07,478.77"/>
    </edge>
    <edge id=":13368460105_4" function="internal">
        <lane id=":13368460105_4_0" index="0" allow="pedestrian delivery bicycle" speed="6.05" length="7.85" shape="1117.86,480.68 1120.62,480.32 1122.67,480.52 1124.01,481.27 1124.64,482.60"/>
    </edge>
    <edge id=":13368460106_0" function="internal">
        <lane id=":13368460106_0_0" index="0" allow="pedestrian delivery bicycle" speed="3.65" length="4.67" shape="1130.25,514.63 1129.66,515.95 1128.95,516.49 1128.09,516.23 1127.09,515.19"/>
    </edge>
    <edge id=":2190601967_0" function="internal">
        <lane id=":2190601967_0_0" index="0" disallow="tram rail_urban rail rail_electric rail_fast ship container cable_car subway aircraft wheelchair scooter drone" speed="7.36" length="11.65" shape="1089.74,598.14 1086.77,599.25 1084.85,601.06 1083.98,603.56 1084.16,606.75"/>
    </edge>
    <edge id=":2190601967_1" function="internal">
        <lane id=":2190601967_1_0" index="0" disallow="tram rail_urban rail rail_electric rail_fast ship container cable_car subway aircraft wheelchair scooter drone" speed="8.33" length="13.27" shape="1089.74,598.14 1086.64,599.08 1084.11,600.22 1081.29,601.46 1077.34,602.71"/>
        <lane id=":2190601967_1_1" index="1" disallow="tram rail_urban rail rail_electric rail_fast ship container cable_car subway aircraft wheelchair scooter drone" speed="8.33" length="13.27" shape="1089.74,598.14 1086.52,598.59 1083.72,598.66 1080.63,598.84 1076.55,599.61"/>
    </edge>
    <edge id=":2190601967_3" function="internal">
        <lane id=":2190601967_3_0" index="0" disallow="tram rail_urban rail rail_electric rail_fast ship container cable_car subway aircraft wheelchair scooter drone" speed="8.33" length="12.70" shape="1083.29,594.10 1083.80,598.01 1083.81,600.92 1083.78,603.58 1084.16,606.75"/>
    </edge>
    <edge id=":2190601967_4" function="internal">
        <lane id=":2190601967_4_0" index="0" disallow="tram rail_urban rail rail_electric rail_fast ship container cable_car subway aircraft wheelchair scooter drone" speed="5.86" length="6.83" shape="1080.15,594.72 1080.20,596.44 1079.62,597.83 1078.40,598.89 1076.55,599.61"/>
    </edge>
    <edge id=":2496228891_0" function="internal">
        <lane id=":2496228891_0_0" index="0" disallow="tram rail_urban rail rail_electric rail_fast ship container cable_car subway aircraft wheelchair scooter drone" speed="8.33" length="13.40" shape="967.36,523.87 966.82,519.70 966.80,516.58 966.86,513.76 966.56,510.51"/>
    </edge>
    <edge id=":2496228891_1" function="internal">
        <lane id=":2496228891_1_0" index="0" disallow="tram rail_urban rail rail_electric rail_fast ship container cable_car subway aircraft wheelchair scooter drone" speed="6.38" length="8.14" shape="970.50,523.26 970.39,521.05 970.99,519.29 972.30,517.97 974.33,517.10"/>
    </edge>
    <edge id=":2496228891_2" function="internal">
        <lane id=":2496228891_2_0" index="0" disallow="tram rail_urban rail rail_electric rail_fast ship container cable_car subway aircraft wheelchair scooter drone" speed="7.66" length="11.49" shape="961.16,519.37 963.96,518.02 965.79,516.10 966.66,513.59 966.56,510.51"/>
    </edge>
    <edge id=":2496228891_3" function="internal">
        <lane id=":2496228891_3_0" index="0" disallow="tram rail_urban rail rail_electric rail_fast ship container cable_car subway aircraft wheelchair scooter drone" speed="8.33" length="13.43" shape="961.16,519.37 964.19,518.13 966.68,516.78 969.50,515.38 973.49,514.01"/>
        <lane id=":2496228891_3_1" index="1" disallow="tram rail_urban rail rail_electric rail_fast ship container cable_car subway aircraft wheelchair scooter drone" speed="8.33" length="13.43" shape="961.16,519.37 964.32,518.61 967.12,518.32 970.23,517.98 974.33,517.10"/>
    </edge>
    <edge id=":2496228894_0" function="internal">
        <lane id=":2496228894_0_0" index="0" disallow="tram rail_urban rail rail_electric rail_fast ship container cable_car subway aircraft wheelchair scooter drone" speed="6.75" length="10.17" shape="1060.45,483.57 1061.27,485.93 1062.84,487.41 1065.17,488.02 1068.26,487.74"/>
    </edge>
    <edge id=":2496228894_1" function="internal">
        <lane id=":2496228894_1_0" index="0" disallow="tram rail_urban rail rail_electric rail_fast ship container cable_car subway aircraft wheelchair scooter drone" speed="8.33" length="14.52" shape="1060.45,483.57 1061.22,486.82 1062.25,489.70 1063.40,492.99 1064.50,497.46"/>
        <lane id=":2496228894_1_1" index="1" disallow="tram rail_urban rail rail_electric rail_fast ship container cable_car subway aircraft wheelchair scooter drone" speed="8.33" length="14.52" shape="1060.45,483.57 1060.73,486.91 1060.68,489.99 1060.74,493.48 1061.35,498.06"/>
    </edge>
    <edge id=":2496228894_3" function="internal">
        <lane id=":2496228894_3_0" index="0" disallow="tram rail_urban rail rail_electric rail_fast ship container cable_car subway aircraft wheelchair scooter drone" speed="9.72" length="13.29" shape="1055.23,490.80 1068.26,487.74"/>
        <lane id=":2496228894_3_1" index="1" disallow="tram rail_urban rail rail_electric rail_fast ship container cable_car subway aircraft wheelchair scooter drone" speed="9.72" length="13.29" shape="1056.06,493.90 1068.91,490.87"/>
    </edge>
    <edge id=":2496228894_5" function="internal">