<configuration>
    <input>
        <net-file value="red_osm.net.xml"/>
        <route-files value="rutas_osm.rou.xml"/>
    </input>

    <time>
        <begin value="0"/>
        <end value="600"/>
    </time>
</configuration>
